Version 4
SHEET 1 880 680
WIRE 160 -96 64 -96
WIRE 256 -80 192 -80
WIRE 384 -80 320 -80
WIRE 64 -48 64 -96
WIRE 192 32 192 -80
WIRE 240 32 192 32
WIRE 384 32 384 -80
WIRE 384 32 320 32
WIRE 64 64 64 32
WIRE 160 80 160 -96
WIRE 256 80 160 80
WIRE 256 96 256 80
WIRE -48 144 -176 144
WIRE 112 144 32 144
WIRE 192 144 192 32
WIRE 192 144 176 144
WIRE 240 144 192 144
WIRE 384 160 384 32
WIRE 384 160 304 160
WIRE 240 176 192 176
WIRE 288 208 288 192
WIRE 400 208 288 208
WIRE 192 224 192 176
WIRE -176 240 -176 144
WIRE 272 272 272 192
WIRE 304 272 272 272
WIRE 400 272 400 208
WIRE 400 272 368 272
WIRE -176 384 -176 320
WIRE 256 384 256 224
WIRE 192 416 192 304
WIRE 256 496 256 464
FLAG 192 416 0
FLAG 64 64 0
FLAG 256 496 0
FLAG -176 384 0
SYMBOL Opamps\\opamp2 272 96 R0
SYMATTR InstName U1
SYMBOL res 336 16 R90
WINDOW 0 0 56 VBottom 2
WINDOW 3 32 56 VTop 2
SYMATTR InstName R2
SYMATTR Value 160k
SYMBOL res 176 208 R0
SYMATTR InstName R3
SYMATTR Value 16k
SYMBOL cap 368 256 R90
WINDOW 0 0 32 VBottom 2
WINDOW 3 32 32 VTop 2
SYMATTR InstName C3
SYMATTR Value 30p
SYMBOL cap 176 128 R90
WINDOW 0 0 32 VBottom 2
WINDOW 3 32 32 VTop 2
SYMATTR InstName C1
SYMATTR Value 10n
SYMBOL voltage -176 224 R0
WINDOW 123 24 124 Left 2
WINDOW 39 0 0 Left 2
SYMATTR Value2 AC 1.
SYMATTR InstName V1
SYMATTR Value SINE(0 1 1000)
SYMBOL voltage 64 -64 R0
WINDOW 123 0 0 Left 2
WINDOW 39 0 0 Left 2
SYMATTR InstName V2
SYMATTR Value -15
SYMBOL voltage 256 368 R0
WINDOW 123 0 0 Left 2
WINDOW 39 0 0 Left 2
SYMATTR InstName V3
SYMATTR Value 15
SYMBOL res 48 128 R90
WINDOW 0 0 56 VBottom 2
WINDOW 3 32 56 VTop 2
SYMATTR InstName R1
SYMATTR Value 16k
SYMBOL cap 320 -96 R90
WINDOW 0 0 32 VBottom 2
WINDOW 3 32 32 VTop 2
SYMATTR InstName C2
SYMATTR Value 1n
TEXT 248 616 Left 2 !.lib LM101A.sub
TEXT -48 616 Left 2 !.tran 0.01
